@<TRIPOS>MOLECULE
LIG
88 90 1                 
SMALL
USER_CHARGES
@<TRIPOS>ATOM
1	 CAP	91.048	-11.128	18.970	C.3	1	ACO401	0.000	
2	   C	94.958	-17.008	17.652	C.3	1	ACO401	0.000	
3	   O	95.223	-17.913	16.715	O.3	1	ACO401	0.000	
4	 OAP	89.769	-10.594	19.343	O.3	1	ACO401	0.000	
5	 CBP	91.434	-10.802	17.515	C.3	1	ACO401	0.000	
6	 CDP	92.905	-10.465	17.404	C.3	1	ACO401	0.000	
7	 CEP	90.585	-9.653	16.951	C.3	1	ACO401	0.000	
8	 CH3	94.834	-17.332	18.973	C.3	1	ACO401	0.000	
9	 P1A	86.406	-11.159	14.889	P.3	1	ACO401	0.000	
10	 P2A	89.020	-12.461	15.128	P.3	1	ACO401	0.000	
11	 P3B	84.714	-6.357	16.037	P.3	1	ACO401	0.000	
12	 S1P	94.832	-15.420	17.221	S.3	1	ACO401	0.000	
13	 C2P	94.493	-15.469	15.483	C.3	1	ACO401	0.000	
14	 C3P	93.121	-16.134	15.237	C.3	1	ACO401	0.000	
15	 N4P	92.344	-15.702	16.388	N.pl3	1	ACO401	0.000	
16	 C5P	91.266	-16.235	16.914	C.2	1	ACO401	0.000	
17	 O5P	90.748	-17.232	16.442	O.2	1	ACO401	0.000	
18	 C6P	90.730	-15.553	18.153	C.3	1	ACO401	0.000	
19	 C7P	91.811	-14.876	18.994	C.3	1	ACO401	0.000	
20	 N8P	91.767	-13.420	18.762	N.pl3	1	ACO401	0.000	
21	 C9P	91.015	-12.584	19.348	C.2	1	ACO401	0.000	
22	 O9P	90.177	-12.964	20.294	O.2	1	ACO401	0.000	
23	 C1B	87.777	-7.331	19.476	C.3	1	ACO401	0.000	
24	 N1A	93.006	-7.158	19.493	N.2	1	ACO401	0.000	
25	 O1A	86.779	-10.976	13.434	O.co2	1	ACO401	0.000	
26	 C2A	92.149	-7.998	20.113	C.2	1	ACO401	0.000	
27	 C2B	86.534	-6.801	18.811	C.3	1	ACO401	0.000	
28	 O2A	85.011	-11.557	15.220	O.co2	1	ACO401	0.000	
29	 O2B	85.452	-7.068	19.710	O.3	1	ACO401	0.000	
30	 C3B	86.454	-7.650	17.549	C.3	1	ACO401	0.000	
31	 N3A	90.819	-7.890	19.987	N.2	1	ACO401	0.000	
32	 O3A	87.473	-12.214	15.530	O.3	1	ACO401	0.000	
33	 O3B	85.167	-7.648	16.948	O.3	1	ACO401	0.000	
34	 C4A	90.244	-6.920	19.233	C.2	1	ACO401	0.000	
35	 C4B	86.860	-9.014	18.056	C.3	1	ACO401	0.000	
36	 O4A	89.173	-13.889	14.672	O.co2	1	ACO401	0.000	
37	 O4B	87.789	-8.706	19.106	O.3	1	ACO401	0.000	
38	 C5A	91.058	-6.016	18.566	C.2	1	ACO401	0.000	
39	 C5B	87.506	-9.895	16.982	C.3	1	ACO401	0.000	
40	 O5A	89.415	-11.365	14.199	O.co2	1	ACO401	0.000	
41	 O5B	86.811	-9.837	15.739	O.3	1	ACO401	0.000	
42	 C6A	92.536	-6.160	18.720	C.2	1	ACO401	0.000	
43	 N6A	93.392	-5.315	18.109	N.pl3	1	ACO401	0.000	
44	 O6A	89.718	-12.260	16.557	O.3	1	ACO401	0.000	
45	 N7A	90.255	-5.166	17.891	N.2	1	ACO401	0.000	
46	 O7A	86.009	-5.569	16.025	O.3	1	ACO401	0.000	
47	 C8A	88.969	-5.544	18.139	C.2	1	ACO401	0.000	
48	 O8A	83.600	-5.639	16.803	O.co2	1	ACO401	0.000	
49	 N9A	88.964	-6.611	18.954	N.2	1	ACO401	0.000	
50	 O9A	84.263	-6.934	14.705	O.co2	1	ACO401	0.000	
51	 CCP	91.145	-12.034	16.646	C.3	1	ACO401	0.000	
52	 H01	91.869	-10.652	19.507	 H	1	ACO401	0.000	
53	 H02	94.317	-17.889	17.628	 H	1	ACO401	0.000	
54	 H03	95.132	-17.512	15.847	 H	1	ACO401	0.000	
55	 H04	89.515	-9.907	18.723	 H	1	ACO401	0.000	
56	 H05	93.476	-11.380	17.247	 H	1	ACO401	0.000	
57	 H06	93.061	-9.791	16.562	 H	1	ACO401	0.000	
58	 H07	93.238	-9.982	18.323	 H	1	ACO401	0.000	
59	 H08	89.665	-9.564	17.529	 H	1	ACO401	0.000	
60	 H09	91.145	-8.720	17.016	 H	1	ACO401	0.000	
61	 H10	90.341	-9.859	15.909	 H	1	ACO401	0.000	
62	 H11	93.778	-17.431	19.225	 H	1	ACO401	0.000	
63	 H12	95.343	-18.277	19.165	 H	1	ACO401	0.000	
64	 H13	95.281	-16.547	19.584	 H	1	ACO401	0.000	
65	 H14	95.269	-16.047	14.981	 H	1	ACO401	0.000	
66	 H15	94.480	-14.453	15.087	 H	1	ACO401	0.000	
67	 H16	93.178	-17.218	15.137	 H	1	ACO401	0.000	
68	 H17	92.675	-15.783	14.307	 H	1	ACO401	0.000	
69	 H18	92.683	-14.870	16.850	 H	1	ACO401	0.000	
70	 H19	90.280	-16.327	18.774	 H	1	ACO401	0.000	
71	 H20	90.007	-14.797	17.846	 H	1	ACO401	0.000	
72	 H21	92.790	-15.262	18.710	 H	1	ACO401	0.000	
73	 H22	91.635	-15.083	20.050	 H	1	ACO401	0.000	
74	 H23	92.400	-13.052	18.066	 H	1	ACO401	0.000	
75	 H24	87.794	-7.199	20.558	 H	1	ACO401	0.000	
76	 H25	92.554	-8.793	20.739	 H	1	ACO401	0.000	
77	 H26	86.517	-5.737	18.577	 H	1	ACO401	0.000	
78	 H27	85.266	-6.283	20.230	 H	1	ACO401	0.000	
79	 H28	87.088	-7.277	16.745	 H	1	ACO401	0.000	
80	 H29	86.000	-9.597	18.384	 H	1	ACO401	0.000	
81	 H30	87.470	-10.926	17.334	 H	1	ACO401	0.000	
82	 H31	88.532	-9.562	16.826	 H	1	ACO401	0.000	
83	 H32	94.388	-5.431	18.229	 H	1	ACO401	0.000	
84	 H33	93.037	-4.567	17.531	 H	1	ACO401	0.000	
85	 H34	86.282	-5.387	16.927	 H	1	ACO401	0.000	
86	 H35	88.081	-5.055	17.737	 H	1	ACO401	0.000	
87	 H36	91.615	-12.907	17.099	 H	1	ACO401	0.000	
88	 H37	91.548	-11.873	15.646	 H	1	ACO401	0.000	
@<TRIPOS>BOND
     1     1     4    1
     2     1     5    1
     3     1    21    1
     4     1    52    1
     5     2     3    1
     6     2     8    1
     7     2    12    1
     8     2    53    1
     9     3    54    1
    10     4    55    1
    11     5     6    1
    12     5     7    1
    13     5    51    1
    14     6    56    1
    15     6    57    1
    16     6    58    1
    17     7    59    1
    18     7    60    1
    19     7    61    1
    20     8    62    1
    21     8    63    1
    22     8    64    1
    23     9    25    1
    24     9    28    2
    25     9    32    1
    26     9    41    1
    27    10    32    1
    28    10    36    1
    29    10    40    2
    30    10    44    1
    31    11    33    1
    32    11    46    1
    33    11    48    1
    34    11    50    2
    35    12    13    1
    36    13    14    1
    37    13    65    1
    38    13    66    1
    39    14    15    1
    40    14    67    1
    41    14    68    1
    42    15    16    1
    43    15    69    1
    44    16    17    2
    45    16    18    1
    46    18    19    1
    47    18    70    1
    48    18    71    1
    49    19    20    1
    50    19    72    1
    51    19    73    1
    52    20    21    1
    53    20    74    1
    54    21    22    2
    55    23    27    1
    56    23    37    1
    57    23    49    1
    58    23    75    1
    59    24    26   ar
    60    24    42   ar
    61    26    31   ar
    62    26    76    1
    63    27    29    1
    64    27    30    1
    65    27    77    1
    66    29    78    1
    67    30    33    1
    68    30    35    1
    69    30    79    1
    70    31    34   ar
    71    34    38   ar
    72    34    49   ar
    73    35    37    1
    74    35    39    1
    75    35    80    1
    76    38    42   ar
    77    38    45   ar
    78    39    41    1
    79    39    81    1
    80    39    82    1
    81    42    43    1
    82    43    83    1
    83    43    84    1
    84    44    51    1
    85    45    47   ar
    86    46    85    1
    87    47    49   ar
    88    47    86    1
    89    51    87    1
    90    51    88    1
